LTspice 24.1.10 for Windows
Circuit: C:\ifmo\functional_circuitry\lab 1\part 1\demux_tests.net
Start Time: Wed Oct 15 17:20:47 2025
Options: ALLOW_AMBIGUOUS_MODELS
C:\ifmo\functional_circuitry\lab 1\part 1\demux_tests.net(37): This model has multiple definitions. Choosing one for you, unwisely. (Note: Option "ALLOW_AMBIGUOUS_MODELS" is enabled.)
M1 VDD A N001 VDD PMOS l=90n w=400n
                  ^^^^
C:\ifmo\functional_circuitry\lab 1\part 1\demux_tests.net(38): This model has multiple definitions. Choosing one for you, unwisely. (Note: Option "ALLOW_AMBIGUOUS_MODELS" is enabled.)
M2 N001 B VOUT N001 PMOS l=90n w=400n
                    ^^^^
C:\ifmo\functional_circuitry\lab 1\part 1\demux_tests.net(39): This model has multiple definitions. Choosing one for you, unwisely. (Note: Option "ALLOW_AMBIGUOUS_MODELS" is enabled.)
M4 VOUT A 0 0 NMOS l=90n w=200n
              ^^^^
C:\ifmo\functional_circuitry\lab 1\part 1\demux_tests.net(40): This model has multiple definitions. Choosing one for you, unwisely. (Note: Option "ALLOW_AMBIGUOUS_MODELS" is enabled.)
M3 VOUT B 0 0 NMOS l=90n w=200n
              ^^^^
C:\ifmo\functional_circuitry\lab 1\part 1\demux_tests.net(37): This model has multiple definitions. Choosing one for you, unwisely. (Note: Option "ALLOW_AMBIGUOUS_MODELS" is enabled.)
M1 VDD A N001 VDD PMOS l=90n w=400n
                  ^^^^
C:\ifmo\functional_circuitry\lab 1\part 1\demux_tests.net(38): This model has multiple definitions. Choosing one for you, unwisely. (Note: Option "ALLOW_AMBIGUOUS_MODELS" is enabled.)
M2 N001 B VOUT N001 PMOS l=90n w=400n
                    ^^^^
C:\ifmo\functional_circuitry\lab 1\part 1\demux_tests.net(39): This model has multiple definitions. Choosing one for you, unwisely. (Note: Option "ALLOW_AMBIGUOUS_MODELS" is enabled.)
M4 VOUT A 0 0 NMOS l=90n w=200n
              ^^^^
C:\ifmo\functional_circuitry\lab 1\part 1\demux_tests.net(40): This model has multiple definitions. Choosing one for you, unwisely. (Note: Option "ALLOW_AMBIGUOUS_MODELS" is enabled.)
M3 VOUT B 0 0 NMOS l=90n w=200n
              ^^^^
C:\ifmo\functional_circuitry\lab 1\part 1\demux_tests.net(37): This model has multiple definitions. Choosing one for you, unwisely. (Note: Option "ALLOW_AMBIGUOUS_MODELS" is enabled.)
M1 VDD A N001 VDD PMOS l=90n w=400n
                  ^^^^
C:\ifmo\functional_circuitry\lab 1\part 1\demux_tests.net(38): This model has multiple definitions. Choosing one for you, unwisely. (Note: Option "ALLOW_AMBIGUOUS_MODELS" is enabled.)
M2 N001 B VOUT N001 PMOS l=90n w=400n
                    ^^^^
C:\ifmo\functional_circuitry\lab 1\part 1\demux_tests.net(39): This model has multiple definitions. Choosing one for you, unwisely. (Note: Option "ALLOW_AMBIGUOUS_MODELS" is enabled.)
M4 VOUT A 0 0 NMOS l=90n w=200n
              ^^^^
C:\ifmo\functional_circuitry\lab 1\part 1\demux_tests.net(40): This model has multiple definitions. Choosing one for you, unwisely. (Note: Option "ALLOW_AMBIGUOUS_MODELS" is enabled.)
M3 VOUT B 0 0 NMOS l=90n w=200n
              ^^^^
C:\ifmo\functional_circuitry\lab 1\part 1\demux_tests.net(37): This model has multiple definitions. Choosing one for you, unwisely. (Note: Option "ALLOW_AMBIGUOUS_MODELS" is enabled.)
M1 VDD A N001 VDD PMOS l=90n w=400n
                  ^^^^
C:\ifmo\functional_circuitry\lab 1\part 1\demux_tests.net(38): This model has multiple definitions. Choosing one for you, unwisely. (Note: Option "ALLOW_AMBIGUOUS_MODELS" is enabled.)
M2 N001 B VOUT N001 PMOS l=90n w=400n
                    ^^^^
C:\ifmo\functional_circuitry\lab 1\part 1\demux_tests.net(39): This model has multiple definitions. Choosing one for you, unwisely. (Note: Option "ALLOW_AMBIGUOUS_MODELS" is enabled.)
M4 VOUT A 0 0 NMOS l=90n w=200n
              ^^^^
C:\ifmo\functional_circuitry\lab 1\part 1\demux_tests.net(40): This model has multiple definitions. Choosing one for you, unwisely. (Note: Option "ALLOW_AMBIGUOUS_MODELS" is enabled.)
M3 VOUT B 0 0 NMOS l=90n w=200n
              ^^^^
C:\ifmo\functional_circuitry\lab 1\part 1\demux_tests.net(37): This model has multiple definitions. Choosing one for you, unwisely. (Note: Option "ALLOW_AMBIGUOUS_MODELS" is enabled.)
M1 VDD A N001 VDD PMOS l=90n w=400n
                  ^^^^
C:\ifmo\functional_circuitry\lab 1\part 1\demux_tests.net(38): This model has multiple definitions. Choosing one for you, unwisely. (Note: Option "ALLOW_AMBIGUOUS_MODELS" is enabled.)
M2 N001 B VOUT N001 PMOS l=90n w=400n
                    ^^^^
C:\ifmo\functional_circuitry\lab 1\part 1\demux_tests.net(39): This model has multiple definitions. Choosing one for you, unwisely. (Note: Option "ALLOW_AMBIGUOUS_MODELS" is enabled.)
M4 VOUT A 0 0 NMOS l=90n w=200n
              ^^^^
C:\ifmo\functional_circuitry\lab 1\part 1\demux_tests.net(40): This model has multiple definitions. Choosing one for you, unwisely. (Note: Option "ALLOW_AMBIGUOUS_MODELS" is enabled.)
M3 VOUT B 0 0 NMOS l=90n w=200n
              ^^^^
C:\ifmo\functional_circuitry\lab 1\part 1\demux_tests.net(37): This model has multiple definitions. Choosing one for you, unwisely. (Note: Option "ALLOW_AMBIGUOUS_MODELS" is enabled.)
M1 VDD A N001 VDD PMOS l=90n w=400n
                  ^^^^
C:\ifmo\functional_circuitry\lab 1\part 1\demux_tests.net(38): This model has multiple definitions. Choosing one for you, unwisely. (Note: Option "ALLOW_AMBIGUOUS_MODELS" is enabled.)
M2 N001 B VOUT N001 PMOS l=90n w=400n
                    ^^^^
C:\ifmo\functional_circuitry\lab 1\part 1\demux_tests.net(39): This model has multiple definitions. Choosing one for you, unwisely. (Note: Option "ALLOW_AMBIGUOUS_MODELS" is enabled.)
M4 VOUT A 0 0 NMOS l=90n w=200n
              ^^^^
C:\ifmo\functional_circuitry\lab 1\part 1\demux_tests.net(40): This model has multiple definitions. Choosing one for you, unwisely. (Note: Option "ALLOW_AMBIGUOUS_MODELS" is enabled.)
M3 VOUT B 0 0 NMOS l=90n w=200n
              ^^^^
C:\ifmo\functional_circuitry\lab 1\part 1\demux_tests.net(37): This model has multiple definitions. Choosing one for you, unwisely. (Note: Option "ALLOW_AMBIGUOUS_MODELS" is enabled.)
M1 VDD A N001 VDD PMOS l=90n w=400n
                  ^^^^
C:\ifmo\functional_circuitry\lab 1\part 1\demux_tests.net(38): This model has multiple definitions. Choosing one for you, unwisely. (Note: Option "ALLOW_AMBIGUOUS_MODELS" is enabled.)
M2 N001 B VOUT N001 PMOS l=90n w=400n
                    ^^^^
C:\ifmo\functional_circuitry\lab 1\part 1\demux_tests.net(39): This model has multiple definitions. Choosing one for you, unwisely. (Note: Option "ALLOW_AMBIGUOUS_MODELS" is enabled.)
M4 VOUT A 0 0 NMOS l=90n w=200n
              ^^^^
C:\ifmo\functional_circuitry\lab 1\part 1\demux_tests.net(40): This model has multiple definitions. Choosing one for you, unwisely. (Note: Option "ALLOW_AMBIGUOUS_MODELS" is enabled.)
M3 VOUT B 0 0 NMOS l=90n w=200n
              ^^^^
C:\ifmo\functional_circuitry\lab 1\part 1\demux_tests.net(37): This model has multiple definitions. Choosing one for you, unwisely. (Note: Option "ALLOW_AMBIGUOUS_MODELS" is enabled.)
M1 VDD A N001 VDD PMOS l=90n w=400n
                  ^^^^
C:\ifmo\functional_circuitry\lab 1\part 1\demux_tests.net(38): This model has multiple definitions. Choosing one for you, unwisely. (Note: Option "ALLOW_AMBIGUOUS_MODELS" is enabled.)
M2 N001 B VOUT N001 PMOS l=90n w=400n
                    ^^^^
C:\ifmo\functional_circuitry\lab 1\part 1\demux_tests.net(39): This model has multiple definitions. Choosing one for you, unwisely. (Note: Option "ALLOW_AMBIGUOUS_MODELS" is enabled.)
M4 VOUT A 0 0 NMOS l=90n w=200n
              ^^^^
C:\ifmo\functional_circuitry\lab 1\part 1\demux_tests.net(40): This model has multiple definitions. Choosing one for you, unwisely. (Note: Option "ALLOW_AMBIGUOUS_MODELS" is enabled.)
M3 VOUT B 0 0 NMOS l=90n w=200n
              ^^^^
C:\ifmo\functional_circuitry\lab 1\part 1\demux_tests.net(37): This model has multiple definitions. Choosing one for you, unwisely. (Note: Option "ALLOW_AMBIGUOUS_MODELS" is enabled.)
M1 VDD A N001 VDD PMOS l=90n w=400n
                  ^^^^
C:\ifmo\functional_circuitry\lab 1\part 1\demux_tests.net(38): This model has multiple definitions. Choosing one for you, unwisely. (Note: Option "ALLOW_AMBIGUOUS_MODELS" is enabled.)
M2 N001 B VOUT N001 PMOS l=90n w=400n
                    ^^^^
C:\ifmo\functional_circuitry\lab 1\part 1\demux_tests.net(39): This model has multiple definitions. Choosing one for you, unwisely. (Note: Option "ALLOW_AMBIGUOUS_MODELS" is enabled.)
M4 VOUT A 0 0 NMOS l=90n w=200n
              ^^^^
C:\ifmo\functional_circuitry\lab 1\part 1\demux_tests.net(40): This model has multiple definitions. Choosing one for you, unwisely. (Note: Option "ALLOW_AMBIGUOUS_MODELS" is enabled.)
M3 VOUT B 0 0 NMOS l=90n w=200n
              ^^^^
C:\ifmo\functional_circuitry\lab 1\part 1\demux_tests.net(37): This model has multiple definitions. Choosing one for you, unwisely. (Note: Option "ALLOW_AMBIGUOUS_MODELS" is enabled.)
M1 VDD A N001 VDD PMOS l=90n w=400n
                  ^^^^
C:\ifmo\functional_circuitry\lab 1\part 1\demux_tests.net(38): This model has multiple definitions. Choosing one for you, unwisely. (Note: Option "ALLOW_AMBIGUOUS_MODELS" is enabled.)
M2 N001 B VOUT N001 PMOS l=90n w=400n
                    ^^^^
C:\ifmo\functional_circuitry\lab 1\part 1\demux_tests.net(39): This model has multiple definitions. Choosing one for you, unwisely. (Note: Option "ALLOW_AMBIGUOUS_MODELS" is enabled.)
M4 VOUT A 0 0 NMOS l=90n w=200n
              ^^^^
C:\ifmo\functional_circuitry\lab 1\part 1\demux_tests.net(40): This model has multiple definitions. Choosing one for you, unwisely. (Note: Option "ALLOW_AMBIGUOUS_MODELS" is enabled.)
M3 VOUT B 0 0 NMOS l=90n w=200n
              ^^^^
C:\ifmo\functional_circuitry\lab 1\part 1\demux_tests.net(37): This model has multiple definitions. Choosing one for you, unwisely. (Note: Option "ALLOW_AMBIGUOUS_MODELS" is enabled.)
M1 VDD A N001 VDD PMOS l=90n w=400n
                  ^^^^
C:\ifmo\functional_circuitry\lab 1\part 1\demux_tests.net(38): This model has multiple definitions. Choosing one for you, unwisely. (Note: Option "ALLOW_AMBIGUOUS_MODELS" is enabled.)
M2 N001 B VOUT N001 PMOS l=90n w=400n
                    ^^^^
C:\ifmo\functional_circuitry\lab 1\part 1\demux_tests.net(39): This model has multiple definitions. Choosing one for you, unwisely. (Note: Option "ALLOW_AMBIGUOUS_MODELS" is enabled.)
M4 VOUT A 0 0 NMOS l=90n w=200n
              ^^^^
C:\ifmo\functional_circuitry\lab 1\part 1\demux_tests.net(40): This model has multiple definitions. Choosing one for you, unwisely. (Note: Option "ALLOW_AMBIGUOUS_MODELS" is enabled.)
M3 VOUT B 0 0 NMOS l=90n w=200n
              ^^^^
solver = Normal
Maximum thread count: 4
tnom = 27
temp = 27
method = trap
Instance "x1:x1:x1:M4": Length shorter than recommended for a level 1 MOSFET.
Instance "x1:x1:x1:M4": Width narrower than recommended for a level 1 MOSFET.
Instance "x1:x1:x1:M3": Length shorter than recommended for a level 1 MOSFET.
Instance "x1:x1:x1:M3": Width narrower than recommended for a level 1 MOSFET.
Instance "x1:x2:x1:M4": Length shorter than recommended for a level 1 MOSFET.
Instance "x1:x2:x1:M4": Width narrower than recommended for a level 1 MOSFET.
Instance "x1:x2:x1:M3": Length shorter than recommended for a level 1 MOSFET.
Instance "x1:x2:x1:M3": Width narrower than recommended for a level 1 MOSFET.
Instance "x1:x3:x1:M4": Length shorter than recommended for a level 1 MOSFET.
Instance "x1:x3:x1:M4": Width narrower than recommended for a level 1 MOSFET.
Instance "x1:x3:x1:M3": Length shorter than recommended for a level 1 MOSFET.
Instance "x1:x3:x1:M3": Width narrower than recommended for a level 1 MOSFET.
Instance "x1:x4:x1:M4": Length shorter than recommended for a level 1 MOSFET.
Instance "x1:x4:x1:M4": Width narrower than recommended for a level 1 MOSFET.
Instance "x1:x4:x1:M3": Length shorter than recommended for a level 1 MOSFET.
Instance "x1:x4:x1:M3": Width narrower than recommended for a level 1 MOSFET.
Instance "x1:x5:x1:M4": Length shorter than recommended for a level 1 MOSFET.
Instance "x1:x5:x1:M4": Width narrower than recommended for a level 1 MOSFET.
Instance "x1:x5:x1:M3": Length shorter than recommended for a level 1 MOSFET.
Instance "x1:x5:x1:M3": Width narrower than recommended for a level 1 MOSFET.
Instance "x1:x6:M4": Length shorter than recommended for a level 1 MOSFET.
Instance "x1:x6:M4": Width narrower than recommended for a level 1 MOSFET.
Instance "x1:x6:M3": Length shorter than recommended for a level 1 MOSFET.
Instance "x1:x6:M3": Width narrower than recommended for a level 1 MOSFET.
Instance "x1:x7:M4": Length shorter than recommended for a level 1 MOSFET.
Instance "x1:x7:M4": Width narrower than recommended for a level 1 MOSFET.
Instance "x1:x7:M3": Length shorter than recommended for a level 1 MOSFET.
Instance "x1:x7:M3": Width narrower than recommended for a level 1 MOSFET.
Instance "x1:x8:M4": Length shorter than recommended for a level 1 MOSFET.
Instance "x1:x8:M4": Width narrower than recommended for a level 1 MOSFET.
Instance "x1:x8:M3": Length shorter than recommended for a level 1 MOSFET.
Instance "x1:x8:M3": Width narrower than recommended for a level 1 MOSFET.
Instance "x1:x9:M4": Length shorter than recommended for a level 1 MOSFET.
Instance "x1:x9:M4": Width narrower than recommended for a level 1 MOSFET.
Instance "x1:x9:M3": Length shorter than recommended for a level 1 MOSFET.
Instance "x1:x9:M3": Width narrower than recommended for a level 1 MOSFET.
Instance "x1:x10:M4": Length shorter than recommended for a level 1 MOSFET.
Instance "x1:x10:M4": Width narrower than recommended for a level 1 MOSFET.
Instance "x1:x10:M3": Length shorter than recommended for a level 1 MOSFET.
Instance "x1:x10:M3": Width narrower than recommended for a level 1 MOSFET.
Instance "x1:x11:M4": Length shorter than recommended for a level 1 MOSFET.
Instance "x1:x11:M4": Width narrower than recommended for a level 1 MOSFET.
Instance "x1:x11:M3": Length shorter than recommended for a level 1 MOSFET.
Instance "x1:x11:M3": Width narrower than recommended for a level 1 MOSFET.
Instance "x1:x1:x1:M1": Length shorter than recommended for a level 1 MOSFET.
Instance "x1:x1:x1:M1": Width narrower than recommended for a level 1 MOSFET.
Instance "x1:x1:x1:M2": Length shorter than recommended for a level 1 MOSFET.
Instance "x1:x1:x1:M2": Width narrower than recommended for a level 1 MOSFET.
Instance "x1:x2:x1:M1": Length shorter than recommended for a level 1 MOSFET.
Instance "x1:x2:x1:M1": Width narrower than recommended for a level 1 MOSFET.
Instance "x1:x2:x1:M2": Length shorter than recommended for a level 1 MOSFET.
Instance "x1:x2:x1:M2": Width narrower than recommended for a level 1 MOSFET.
Instance "x1:x3:x1:M1": Length shorter than recommended for a level 1 MOSFET.
Instance "x1:x3:x1:M1": Width narrower than recommended for a level 1 MOSFET.
Instance "x1:x3:x1:M2": Length shorter than recommended for a level 1 MOSFET.
Instance "x1:x3:x1:M2": Width narrower than recommended for a level 1 MOSFET.
Instance "x1:x4:x1:M1": Length shorter than recommended for a level 1 MOSFET.
Instance "x1:x4:x1:M1": Width narrower than recommended for a level 1 MOSFET.
Instance "x1:x4:x1:M2": Length shorter than recommended for a level 1 MOSFET.
Instance "x1:x4:x1:M2": Width narrower than recommended for a level 1 MOSFET.
Instance "x1:x5:x1:M1": Length shorter than recommended for a level 1 MOSFET.
Instance "x1:x5:x1:M1": Width narrower than recommended for a level 1 MOSFET.
Instance "x1:x5:x1:M2": Length shorter than recommended for a level 1 MOSFET.
Instance "x1:x5:x1:M2": Width narrower than recommended for a level 1 MOSFET.
Instance "x1:x6:M1": Length shorter than recommended for a level 1 MOSFET.
Instance "x1:x6:M1": Width narrower than recommended for a level 1 MOSFET.
Instance "x1:x6:M2": Length shorter than recommended for a level 1 MOSFET.
Instance "x1:x6:M2": Width narrower than recommended for a level 1 MOSFET.
Instance "x1:x7:M1": Length shorter than recommended for a level 1 MOSFET.
Instance "x1:x7:M1": Width narrower than recommended for a level 1 MOSFET.
Instance "x1:x7:M2": Length shorter than recommended for a level 1 MOSFET.
Instance "x1:x7:M2": Width narrower than recommended for a level 1 MOSFET.
Instance "x1:x8:M1": Length shorter than recommended for a level 1 MOSFET.
Instance "x1:x8:M1": Width narrower than recommended for a level 1 MOSFET.
Instance "x1:x8:M2": Length shorter than recommended for a level 1 MOSFET.
Instance "x1:x8:M2": Width narrower than recommended for a level 1 MOSFET.
Instance "x1:x9:M1": Length shorter than recommended for a level 1 MOSFET.
Instance "x1:x9:M1": Width narrower than recommended for a level 1 MOSFET.
Instance "x1:x9:M2": Length shorter than recommended for a level 1 MOSFET.
Instance "x1:x9:M2": Width narrower than recommended for a level 1 MOSFET.
Instance "x1:x10:M1": Length shorter than recommended for a level 1 MOSFET.
Instance "x1:x10:M1": Width narrower than recommended for a level 1 MOSFET.
Instance "x1:x10:M2": Length shorter than recommended for a level 1 MOSFET.
Instance "x1:x10:M2": Width narrower than recommended for a level 1 MOSFET.
Instance "x1:x11:M1": Length shorter than recommended for a level 1 MOSFET.
Instance "x1:x11:M1": Width narrower than recommended for a level 1 MOSFET.
Instance "x1:x11:M2": Length shorter than recommended for a level 1 MOSFET.
Instance "x1:x11:M2": Width narrower than recommended for a level 1 MOSFET.
Direct Newton iteration for .op point succeeded.
Total elapsed time: 92.378 seconds.

Files loaded:
C:\ifmo\functional_circuitry\lab 1\part 1\demux_tests.net
C:\Users\Екатерина\AppData\Local\LTspice\lib\cmp\standard.mos
C:\ifmo\functional_circuitry\lab 1\part 1\90nm_bulk.txt

